LAMMPS (10 Feb 2015)
variable electron     equal 1.6022e-19                 # Electron Volt [J]
variable avogadro     equal 6.02214e+23                # Avogadro Constant
variable lattice      equal 3.639                      # Lattice Constant
variable npt_temp      equal 0.1                     # Temperature
variable nve_temp     equal 0                     # Temperature
variable press	      equal 1.01325                    # Pressure [bar](= 1atm)
variable mass         equal 63.5460                    # Atomic Mass
variable mass_kg      equal (63.546/6.02214e+23)/1000
variable current_time equal time
# variable rand         equal 4928459                    # Random Seed

units       metal
# シミュレーションにおける単位スタイルを設定
# Metalの場合は以下の単位系が設定される

#	mass = grams/mole
#	distance = Angstroms
#	time = picoseconds
#	energy = eV
#	velocity = Angstroms/picosecond
#	force = eV/Angstrom
#	torque = eV
#	temperature = Kelvin
#	pressure = bars
#	dynamic viscosity = Poise
#	charge = multiple of electron charge (1.0 is a proton)
#	dipole = charge*Angstroms
#	electric field = volts/Angstrom
#	density = gram/cm^dim

atom_style  atomic
# 原子スタイルを定義。基本はatomicオプションを使用
# 各原子ごとに座標、速度、原子ID、タイプが格納される。

boundary p p p
# 境界条件設定
# ｘｙｚ方向すべてについてperiodic(周期的)に設定

timestep    0.001
# 単位系(units)がmetalの時、単位はps(ピコセック)

# read_data   ./Cu_no_center.lat
read_data   ./Cu.lat
  orthogonal box = (0 0 0) to (18.195 18.195 18.195)
  reading atoms ...
  501 atoms
# read_data ./Cu_add_atom.lat
# read_data ./Cu_fix_x.lat
# latticeファイル(原子の配列情報が記述されたファイル)を読み込む

pair_style  eam/fs
# 原子間ポテンシャルを設定
# 基本的にはeam/fsポテンシャルを用いる。

pair_coeff  * * /home/hayakawa/potentials/sfe44.1.eam.fs Cu
# 2原子間にはたらく力を導入する。力の場係数
# ここでは外部データを参照することにより設定している

mass        1 63.546
# 原子タイプ1と定義する原子に対して、質量の値をmassに設定

fix 1 all npt temp 0.1 0.1 1 iso 1.01325 1.01325 1
# 制約条件の設定
# 制約条件の名前を1とおく
# allの原子に対して課す
# 変化しないものを並べてる
# nve : 原子数n、体積v、エネルギーe
# npt : 原子数n、圧力p、温度t

## thermoはLAMMMPSのLOGファイルへの出力を設定
thermo 100
# 100タイムステップごとにlogファイルへ出力
thermo_style custom step temp press etotal time vol
# 出力情報の編集。
# timestep,temperture,pressure,total energy,simulation timeを出力

# STABILIZE INITIAL STATE
# Set Temperature Following Gaussian Distribution
velocity all create 0.1 28878 dist gaussian
print 28878
28878

# Stabilize
fix 2 all temp/rescale 1 0.1 0.1 0.5 1.0
# 制約条件の設定
# 制約条件の名前を2とおく
# allの原子に対して課す
# 1タイムステップ毎にtempertureをrescale確認
# 開始時及び終了時の望ましい温度はそれぞれMD_temp
run 20000
  1 neighbor list requests
  update every 1 steps, delay 10 steps, check yes
Step Temp Press TotEng Time Volume
0          0.1    11963.497   -1705.2835            0    6023.6008
Averages over the last 101 of 201 rows, steps 10000 to 20000:
Temp Press TotEng Volume
0.0993393 -1.94069 -1711.96 6038.63
Loop time of 8.06754 on 8 procs for 20000 steps with 501 atoms

Pair  time (%) = 6.32264 (78.3714)
Neigh time (%) = 0 (0)
Comm  time (%) = 1.162 (14.4034)
Outpt time (%) = 0.00365609 (0.0453185)
Other time (%) = 0.579243 (7.17992)

# runを用いて初めて、上記で定義してきた計算を回している。
# 1000タイムステップ繰り返す

unfix 2
# 制約条件2を外す

run 1000
Step Temp Press TotEng Time Volume
20000   0.11713733   -112.82519   -1711.9643           20     6039.302
Averages over the last 6 of 11 rows, steps 20500 to 21000:
Temp Press TotEng Volume
0.10494 7.24822 -1711.96 6038.63
Loop time of 0.497326 on 8 procs for 1000 steps with 501 atoms

Pair  time (%) = 0.347567 (69.8871)
Neigh time (%) = 0 (0)
Comm  time (%) = 0.111935 (22.5073)
Outpt time (%) = 0.000190347 (0.0382742)
Other time (%) = 0.0376342 (7.56731)

#unfix 1

#fix 3 all nve
#run 1000
